
#======================================================================
# CRYSTAL DATA
#----------------------------------------------------------------------
data_VESTA_phase_1


_cell_length_a                        8.8969
_cell_length_b                        9.6311
_cell_length_c                        8.6066
_cell_angle_alpha                   90.2429
_cell_angle_beta                    90.0192
_cell_angle_gamma                   90.0879

loop_
_atom_site_label
_atom_site_fract_x
_atom_site_fract_y
_atom_site_fract_z
_atom_site_occupancy
Mn          0.83019      0.50115      0.58345  1.0000
Mn          0.34464      0.76191      0.24933  1.0000
Mn          0.34569      0.26300      0.25158  1.0000
Mn          0.83671      0.49755      0.91662  1.0000
Mn          0.12422      0.99771      0.75053  1.0000
Mn          0.12395      0.50565      0.75054  1.0000
Mn          0.12132      0.00743      0.41879  1.0000
Mn          0.62017      0.74761      0.08218  1.0000
Mn          0.34018      0.74672      0.58419  1.0000
Mn          0.33749      0.24912      0.58678  1.0000
Mn          0.34164      0.25140      0.91855  1.0000
Mn          0.12015      0.51862      0.08318  1.0000
Mn          0.34008      0.75127      0.91617  1.0000
Mn          0.83552      0.99099      0.24946  1.0000
Mn          0.62187      0.74173      0.41619  1.0000
Mn          0.62116      0.23234      0.74979  1.0000
Mn          0.61991      0.23282      0.42357  1.0000
Mn          0.83694      0.98728      0.91740  1.0000
Mn          0.11711      0.51795      0.41404  1.0000
Mn          0.62250      0.73914      0.75219  1.0000
Mn          0.83275      0.50426      0.24716  1.0000
Mn          0.62654      0.24619      0.08399  1.0000
Mn          0.83695      0.98428      0.58461  1.0000
Mn          0.12223      0.00807      0.08277  1.0000
Li          0.00381      0.26728      0.58541  1.0000
Li          0.00776      0.26580      0.91128  1.0000
Li          0.98201      0.26988      0.25495  1.0000
O           0.02081      0.09864      0.25108  1.0000
O           0.44060      0.34548      0.07849  1.0000
O           0.54227      0.14968      0.24799  1.0000
O           0.93567      0.40680      0.08398  1.0000
O           0.23813      0.16181      0.07147  1.0000
O           0.20016      0.41745      0.24886  1.0000
O           0.76422      0.09811      0.08107  1.0000
O           0.71775      0.34331      0.25078  1.0000
O           0.01874      0.61221      0.24772  1.0000
O           0.43558      0.84979      0.07587  1.0000
O           0.53712      0.65204      0.24692  1.0000
O           0.93854      0.90198      0.08483  1.0000
O           0.25495      0.65380      0.07107  1.0000
O           0.21165      0.92417      0.25054  1.0000
O           0.75266      0.59629      0.07875  1.0000
O           0.70202      0.85014      0.24831  1.0000
O           0.02101      0.08929      0.58927  1.0000
O           0.44054      0.34137      0.42794  1.0000
O           0.52049      0.13729      0.58735  1.0000
O           0.93695      0.40645      0.40682  1.0000
O           0.23603      0.16152      0.42983  1.0000
O           0.19392      0.39197      0.58541  1.0000
O           0.76107      0.09235      0.42085  1.0000
O           0.71941      0.32230      0.58630  1.0000
O           0.02870      0.59527      0.58809  1.0000
O           0.43882      0.84357      0.42770  1.0000
O           0.53705      0.64399      0.58419  1.0000
O           0.93722      0.90202      0.41425  1.0000
O           0.25822      0.64889      0.42676  1.0000
O           0.20491      0.90183      0.58208  1.0000
O           0.75874      0.60413      0.40757  1.0000
O           0.71091      0.83683      0.58494  1.0000
O           0.02259      0.08933      0.91309  1.0000
O           0.43530      0.34054      0.75169  1.0000
O           0.53165      0.14707      0.92097  1.0000
O           0.93715      0.39882      0.75676  1.0000
O           0.24326      0.15558      0.75385  1.0000
O           0.19849      0.39769      0.91899  1.0000
O           0.75727      0.08831      0.75100  1.0000
O           0.71856      0.33671      0.91399  1.0000
O           0.02362      0.60002      0.91272  1.0000
O           0.43278      0.84172      0.74825  1.0000
O           0.52925      0.64925      0.91806  1.0000
O           0.93558      0.89653      0.75134  1.0000
O           0.25795      0.64926      0.75081  1.0000
O           0.20545      0.90281      0.91784  1.0000
O           0.75449      0.59816      0.76245  1.0000
O           0.70590      0.84404      0.91668  1.0000

